Version 4
SHEET 1 1188 680
WIRE 352 -48 352 -128
WIRE 352 -48 304 -48
WIRE 688 -48 352 -48
WIRE 240 0 240 -48
WIRE 160 96 96 96
WIRE 240 96 240 80
WIRE 240 96 160 96
WIRE 1040 96 240 96
WIRE 96 112 96 96
WIRE 1040 112 1040 96
WIRE 640 128 640 -128
WIRE 640 128 608 128
WIRE 96 208 96 192
WIRE 96 208 48 208
WIRE 1040 208 1040 192
WIRE 1040 208 992 208
WIRE 736 224 608 224
WIRE 352 240 352 -48
WIRE 1120 240 1120 -112
WIRE 688 256 688 -48
WIRE 736 256 736 224
WIRE 96 304 48 304
WIRE 304 304 96 304
WIRE 1040 304 992 304
WIRE 1072 304 1040 304
WIRE 736 336 736 256
WIRE 96 352 96 304
WIRE 240 352 240 96
WIRE 1040 352 1040 304
WIRE 160 368 160 96
WIRE 96 480 96 432
WIRE 160 480 160 432
WIRE 160 480 96 480
WIRE 240 480 240 416
WIRE 240 480 160 480
WIRE 352 480 352 304
WIRE 352 480 240 480
WIRE 688 480 688 320
WIRE 688 480 352 480
WIRE 736 480 736 416
WIRE 736 480 688 480
WIRE 1040 480 1040 432
WIRE 1040 480 736 480
WIRE 1120 480 1120 304
WIRE 1120 480 1040 480
WIRE 1120 512 1120 480
SYMBOL Misc\\SCR 336 240 R0
SYMATTR InstName U3
SYMBOL Optos\\PC817D -48 256 R0
SYMATTR InstName U13
SYMBOL diode 304 -64 R90
WINDOW 0 0 32 VBottom 2
WINDOW 3 32 32 VTop 2
SYMATTR InstName D1
SYMBOL res 80 336 R0
SYMATTR InstName R1
SYMBOL cap 144 368 R0
SYMATTR InstName C1
SYMBOL res 80 96 R0
SYMATTR InstName R2
SYMBOL zener 256 416 R180
WINDOW 0 24 64 Left 2
WINDOW 3 24 0 Left 2
SYMATTR InstName D2
SYMBOL res 224 -16 R0
SYMATTR InstName R3
SYMBOL Misc\\SCR 1104 240 R0
SYMATTR InstName U7
SYMBOL Optos\\PC817D 896 256 R0
SYMATTR InstName U17
SYMBOL res 1024 336 R0
SYMATTR InstName R4
SYMBOL res 1024 96 R0
SYMATTR InstName R5
SYMBOL Misc\\SCR 704 320 R180
SYMATTR InstName U4
SYMBOL Optos\\PC817D 512 176 R0
SYMATTR InstName U14
SYMBOL res 720 320 R0
SYMATTR InstName R6
