Version 4
SHEET 1 984 680
WIRE 208 32 96 32
WIRE 384 32 208 32
WIRE 496 32 384 32
WIRE 672 32 496 32
WIRE 816 32 672 32
WIRE 928 32 816 32
WIRE 96 64 96 32
WIRE 208 64 208 32
WIRE 384 64 384 32
WIRE 496 64 496 32
WIRE 672 128 672 32
WIRE 816 144 816 32
WIRE 928 144 928 32
WIRE 96 160 96 128
WIRE 96 160 16 160
WIRE 96 176 96 160
WIRE 208 176 208 128
WIRE 208 176 96 176
WIRE 384 176 384 128
WIRE 496 176 496 128
WIRE 496 176 384 176
WIRE 384 192 384 176
WIRE 384 192 16 192
WIRE 96 208 96 176
WIRE 208 208 208 176
WIRE 384 208 384 192
WIRE 496 208 496 176
WIRE 96 304 96 272
WIRE 208 304 208 272
WIRE 208 304 96 304
WIRE 384 304 384 272
WIRE 384 304 208 304
WIRE 496 304 496 272
WIRE 496 304 384 304
WIRE 672 304 672 208
WIRE 672 304 496 304
WIRE 816 304 816 208
WIRE 816 304 672 304
WIRE 928 304 928 208
WIRE 928 304 816 304
FLAG 16 160 AC1
IOPIN 16 160 In
FLAG 16 192 AC2
IOPIN 16 192 In
SYMBOL Misc\\SCR 80 64 R0
SYMATTR InstName U1
SYMBOL Misc\\SCR 224 128 R180
SYMATTR InstName U2
SYMBOL Misc\\SCR 80 208 R0
SYMATTR InstName U3
SYMBOL Misc\\SCR 224 272 R180
SYMATTR InstName U4
SYMBOL Misc\\SCR 368 64 R0
SYMATTR InstName U5
SYMBOL Misc\\SCR 512 128 R180
SYMATTR InstName U6
SYMBOL Misc\\SCR 368 208 R0
SYMATTR InstName U7
SYMBOL Misc\\SCR 512 272 R180
SYMATTR InstName U8
SYMBOL ind 656 112 R0
SYMATTR InstName L1
SYMBOL Misc\\SCR 800 144 R0
SYMATTR InstName U9
SYMBOL Misc\\SCR 944 208 R180
SYMATTR InstName U10
