Version 4
SHEET 1 880 680
WIRE 240 96 128 96
WIRE 288 96 240 96
WIRE 400 96 400 16
WIRE 400 96 352 96
WIRE 400 128 400 96
WIRE 176 192 128 192
WIRE 352 192 176 192
WIRE 176 256 176 192
WIRE 240 272 240 96
WIRE 176 384 176 336
WIRE 240 384 240 336
WIRE 240 384 176 384
WIRE 400 384 400 192
WIRE 400 384 240 384
WIRE 400 416 400 384
SYMBOL Misc\\SCR 384 128 R0
SYMATTR InstName U1
SYMBOL Optos\\PC817D 32 144 R0
SYMATTR InstName U2
SYMBOL diode 352 80 R90
WINDOW 0 0 32 VBottom 2
WINDOW 3 32 32 VTop 2
SYMATTR InstName D1
SYMBOL res 160 240 R0
SYMATTR InstName R1
SYMBOL cap 224 272 R0
SYMATTR InstName C1
