Version 4
SHEET 1 880 680
WIRE 288 -32 240 -32
WIRE 400 -32 400 -112
WIRE 400 -32 352 -32
WIRE 240 0 240 -32
WIRE 160 96 96 96
WIRE 240 96 240 80
WIRE 240 96 160 96
WIRE 96 112 96 96
WIRE 96 208 96 192
WIRE 96 208 48 208
WIRE 400 240 400 -32
WIRE 96 304 48 304
WIRE 352 304 96 304
WIRE 96 352 96 304
WIRE 240 352 240 96
WIRE 160 368 160 96
WIRE 96 480 96 432
WIRE 160 480 160 432
WIRE 160 480 96 480
WIRE 240 480 240 416
WIRE 240 480 160 480
WIRE 400 480 400 304
WIRE 400 480 240 480
WIRE 400 512 400 480
SYMBOL Misc\\SCR 384 240 R0
SYMATTR InstName U1
SYMBOL Optos\\PC817D -48 256 R0
SYMATTR InstName U2
SYMBOL diode 352 -48 R90
WINDOW 0 0 32 VBottom 2
WINDOW 3 32 32 VTop 2
SYMATTR InstName D1
SYMBOL res 80 336 R0
SYMATTR InstName R1
SYMBOL cap 144 368 R0
SYMATTR InstName C1
SYMBOL res 80 96 R0
SYMATTR InstName R2
SYMBOL zener 256 416 R180
WINDOW 0 24 64 Left 2
WINDOW 3 24 0 Left 2
SYMATTR InstName D2
SYMBOL res 224 -16 R0
SYMATTR InstName R3
